  <routes>
  <route id="1" edges="1/0to1/1 1/1to1/2"/>
  <route id="2" edges="1/2to1/1 1/1to1/0"/>
  <vType id="vtype1" speedDev="0.1"  accel="2.6" decel="0.5" sigma="1.0" length="2.5" minGap="2.5" maxSpeed="12.5" color="1,1,0"/>
  	 
 
  <flow id="flow0" type="vtype1" route="1"  begin="0"  number="20"/>
  <flow id="flow1" type="vtype1" route="2"  begin="0"  number="20"/> 
  </routes>




